<configuration>
    <input>
        <net-file value="mynetwork.net.xml"/>
        <route-files value="routes.rou.xml"/>
        <additional-files value="trafficLights.add.xml"/>
    </input>
    <time>
        <begin value="0"/>
        <end value="1000"/>
    </time>
</configuration>
